@<TRIPOS>MOLECULE
test.pdb
 83 85 0 0 0
SMALL
GASTEIGER

@<TRIPOS>ATOM
      1  C1         6.3240    2.0690    0.0790 C.3     1  UNK1        0.1854
      2  H2         6.9960    2.6870    0.7110 H       1  UNK1        0.0935
      3  O3         6.1930    2.6100   -1.2320 O.3     1  UNK1       -0.3649
      4  H4         5.8870    3.5410   -1.2090 H       1  UNK1        0.2126
      5  C5         3.9750    1.4170    0.1530 C.3     1  UNK1        0.1134
      6  H6         3.7770    1.8260   -0.8660 H       1  UNK1        0.0647
      7  O7         5.0760    2.1580    0.7430 O.3     1  UNK1       -0.3407
      8  C8         6.7990    0.6150   -0.1480 C.3     1  UNK1        0.1339
      9  H9         7.2270    0.1830    0.7910 H       1  UNK1        0.0671
     10  O10        7.9000    0.6070   -1.0460 O.3     1  UNK1       -0.3841
     11  H11        7.6970    1.1550   -1.8500 H       1  UNK1        0.2101
     12  C12        5.6710   -0.2910   -0.6940 C.3     1  UNK1        0.1144
     13  H13        5.5330   -0.1530   -1.7900 H       1  UNK1        0.0648
     14  O14        6.0120   -1.6610   -0.4390 O.3     1  UNK1       -0.3864
     15  H15        6.8850   -1.8710   -0.8510 H       1  UNK1        0.2100
     16  C16        4.3490   -0.0800    0.0720 C.3     1  UNK1        0.1184
     17  H17        4.3850   -0.5850    1.0640 H       1  UNK1        0.0651
     18  O18        3.2620   -0.6170   -0.7110 O.3     1  UNK1       -0.3401
     19  C19        2.7970    1.6990    1.0980 C.3     1  UNK1        0.0730
     20  H20        2.2130    0.7700    1.3220 H       1  UNK1        0.0584
     21  H21        3.1320    2.1710    2.0390 H       1  UNK1        0.0584
     22  O22        1.8410    2.5190    0.4250 O.3     1  UNK1       -0.3924
     23  H23        2.0910    3.4650    0.4750 H       1  UNK1        0.2095
     24  C24        3.0350   -2.0320   -0.6120 C.3     1  UNK1        0.1884
     25  H25        3.9760   -2.6140   -0.7290 H       1  UNK1        0.0938
     26  C26        1.4220   -1.6680    1.1840 C.3     1  UNK1        0.1134
     27  H27        1.7470   -0.6160    1.4240 H       1  UNK1        0.0647
     28  O28        2.5850   -2.3700    0.6850 O.3     1  UNK1       -0.3405
     29  C29        1.9310   -2.2660   -1.6680 C.3     1  UNK1        0.1341
     30  H30        1.7310   -3.3570   -1.8010 H       1  UNK1        0.0671
     31  O31        2.3900   -1.8530   -2.9490 O.3     1  UNK1       -0.3841
     32  H32        2.7280   -0.9220   -2.9070 H       1  UNK1        0.2101
     33  C33        0.6420   -1.5020   -1.2980 C.3     1  UNK1        0.1144
     34  H34        0.7060   -0.4240   -1.5950 H       1  UNK1        0.0648
     35  O35       -0.4690   -2.1050   -1.9870 O.3     1  UNK1       -0.3864
     36  H36       -0.3120   -2.0740   -2.9590 H       1  UNK1        0.2100
     37  C37        0.2500   -1.6250    0.1860 C.3     1  UNK1        0.1184
     38  H38       -0.4770   -2.4670    0.3190 H       1  UNK1        0.0651
     39  O39       -0.3750   -0.3700    0.5700 O.3     1  UNK1       -0.3400
     40  C40        1.0590   -2.4370    2.4650 C.3     1  UNK1        0.0730
     41  H41        0.0370   -2.1620    2.8170 H       1  UNK1        0.0584
     42  H42        1.1380   -3.5300    2.3230 H       1  UNK1        0.0584
     43  O43        1.9020   -2.0180    3.5390 O.3     1  UNK1       -0.3924
     44  H44        2.8250   -2.3180    3.3720 H       1  UNK1        0.2095
     45  C45       -1.7540   -0.2390    0.1950 C.3     1  UNK1        0.1909
     46  H46       -2.0880   -1.0680   -0.4650 H       1  UNK1        0.0938
     47  C47       -2.4840   -1.4510    2.2030 C.3     1  UNK1        0.1825
     48  O48       -2.4910   -0.2360    1.4180 O.3     1  UNK1       -0.3180
     49  C49       -1.9070    1.1700   -0.4280 C.3     1  UNK1        0.1342
     50  H50       -2.5730    1.0980   -1.3250 H       1  UNK1        0.0671
     51  O51       -0.6650    1.5890   -0.9860 O.3     1  UNK1       -0.3841
     52  H52        0.0660    1.5510   -0.2890 H       1  UNK1        0.2101
     53  C53       -2.3850    2.2650    0.5570 C.3     1  UNK1        0.1130
     54  H54       -2.2140    1.9880    1.6250 H       1  UNK1        0.0647
     55  O55       -1.6100    3.4560    0.3860 O.3     1  UNK1       -0.3864
     56  H56       -1.1690    3.4610   -0.5090 H       1  UNK1        0.2100
     57  C57       -3.8560    2.6730    0.2920 C.3     1  UNK1        0.0990
     58  H58       -4.0380    2.8220   -0.7970 H       1  UNK1        0.0636
     59  O59       -4.1150    3.9340    0.9270 O.3     1  UNK1       -0.3876
     60  H60       -3.2860    4.4850    0.9360 H       1  UNK1        0.2100
     61  C61       -3.7510   -1.2960    3.0650 C.3     1  UNK1        0.0950
     62  H62       -3.8350   -2.0970    3.8240 H       1  UNK1        0.0608
     63  H63       -3.8110   -0.3050    3.5460 H       1  UNK1        0.0608
     64  O64       -4.8730   -1.5150    2.2070 O.3     1  UNK1       -0.3900
     65  H65       -4.9200   -0.7770    1.5250 H       1  UNK1        0.2096
     66  O66       -2.5850   -2.5570    1.3440 O.3     1  UNK1       -0.3651
     67  H67       -3.5320   -2.6800    1.0320 H       1  UNK1        0.2126
     68  C68       -4.8660    1.6970    0.9260 C.3     1  UNK1        0.0390
     69  H69       -5.2450    2.1460    1.8780 H       1  UNK1        0.0488
     70  H70       -4.3640    0.7270    1.1960 H       1  UNK1        0.0488
     71  N71       -6.0340    1.4190    0.0640 N.pl3   1  UNK1       -0.3265
     72  H72       -6.6490    2.2230   -0.0770 H       1  UNK1        0.1475
     73  C73       -5.9290    0.5190   -1.0090 C.ar    1  UNK1        0.1187
     74  C74       -6.9760    0.4490   -1.9720 C.ar    1  UNK1       -0.0219
     75  C75       -4.8200   -1.2830   -2.0160 C.ar    1  UNK1        0.0297
     76  C76       -6.9070   -0.5310   -2.9520 C.ar    1  UNK1       -0.0571
     77  H77       -7.8150    1.1360   -1.9280 H       1  UNK1        0.0652
     78  H78       -3.9450   -1.9460   -2.0010 H       1  UNK1        0.0830
     79  H79       -7.6980   -0.6140   -3.6990 H       1  UNK1        0.0619
     80  C80       -5.8180   -1.4160   -2.9860 C.ar    1  UNK1       -0.0435
     81  H81       -5.7530   -2.1870   -3.7480 H       1  UNK1        0.0633
     82  N82       -4.8480   -0.3350   -1.0410 N.ar    1  UNK1       -0.2405
     83  H83       -1.5040   -1.5530    2.7180 H       1  UNK1        0.0932
@<TRIPOS>BOND
     1    81    80    1
     2    79    76    1
     3    80    76   ar
     4    80    75   ar
     5    36    35    1
     6    76    74   ar
     7    31    32    1
     8    31    29    1
     9    75    78    1
    10    75    82   ar
    11    35    33    1
    12    74    77    1
    13    74    73   ar
    14    11    10    1
    15    30    29    1
    16    13    12    1
    17    29    33    1
    18    29    24    1
    19    34    33    1
    20    50    49    1
    21    33    37    1
    22     3     4    1
    23     3     1    1
    24    10     8    1
    25    82    73   ar
    26    73    71    1
    27    51    49    1
    28    51    52    1
    29     6     5    1
    30    15    14    1
    31    58    57    1
    32    25    24    1
    33    18    24    1
    34    18    16    1
    35    12    14    1
    36    12     8    1
    37    12    16    1
    38    24    28    1
    39    56    55    1
    40    46    45    1
    41    49    45    1
    42    49    53    1
    43     8     1    1
    44     8     9    1
    45    72    71    1
    46    71    68    1
    47    16     5    1
    48    16    17    1
    49     1     2    1
    50     1     7    1
    51     5     7    1
    52     5    19    1
    53    37    38    1
    54    37    39    1
    55    37    26    1
    56    45    39    1
    57    45    48    1
    58    57    53    1
    59    57    68    1
    60    57    59    1
    61    55    53    1
    62    22    23    1
    63    22    19    1
    64    53    54    1
    65    28    26    1
    66    68    70    1
    67    68    69    1
    68    59    60    1
    69    67    66    1
    70    19    20    1
    71    19    21    1
    72    26    27    1
    73    26    40    1
    74    66    47    1
    75    48    47    1
    76    65    64    1
    77    47    83    1
    78    47    61    1
    79    64    61    1
    80    42    40    1
    81    40    41    1
    82    40    43    1
    83    61    63    1
    84    61    62    1
    85    44    43    1
