@<TRIPOS>MOLECULE
hope.pdb
 57 58 0 0 0
SMALL
GASTEIGER

@<TRIPOS>ATOM
      1  C1        -0.6220   -0.6540   -0.7630 C.3     1  UNK1        0.1069
      2  H2        -0.9140   -0.2530   -1.7460 H       1  UNK1        0.0643
      3  O3        -1.7760   -1.0980   -0.0560 O.3     1  UNK1       -0.3869
      4  H4        -2.4360   -1.4220   -0.6950 H       1  UNK1        0.2100
      5  C5        -2.1460    2.0090    0.4920 C.3     1  UNK1        0.0989
      6  H6        -2.4050    1.2140    1.1910 H       1  UNK1        0.0636
      7  O7        -2.2570    3.2330    1.2460 O.3     1  UNK1       -0.3876
      8  H8        -2.3650    3.9630    0.6150 H       1  UNK1        0.2100
      9  C9        -0.6540    1.8550    0.0070 C.3     1  UNK1        0.1111
     10  H10       -0.6010    2.1620   -1.0540 H       1  UNK1        0.0646
     11  O11        0.1700    2.7230    0.7650 O.3     1  UNK1       -0.3865
     12  H12       -0.4380    3.2060    1.3570 H       1  UNK1        0.2100
     13  C13        0.0070    0.4560    0.0920 C.3     1  UNK1        0.1179
     14  H14       -0.0100    0.1200    1.1350 H       1  UNK1        0.0650
     15  O15        1.3780    0.6190   -0.3240 O.3     1  UNK1       -0.3402
     16  C16        0.2950   -1.8550   -1.0210 C.3     1  UNK1        0.0727
     17  H17        1.1190   -1.5730   -1.6810 H       1  UNK1        0.0584
     18  H18        0.7160   -2.2160   -0.0730 H       1  UNK1        0.0584
     19  O19       -0.4310   -2.8800   -1.6820 O.3     1  UNK1       -0.3924
     20  H20       -1.0320   -3.2490   -1.0190 H       1  UNK1        0.2095
     21  C21        2.3180    0.8230    0.7250 C.3     1  UNK1        0.1884
     22  H22        1.8540    1.4250    1.5050 H       1  UNK1        0.0938
     23  C23        3.4930   -1.2980    0.5600 C.3     1  UNK1        0.1130
     24  H24        2.9100   -1.6190   -0.3090 H       1  UNK1        0.0647
     25  O25        2.7120   -0.3740    1.3490 O.3     1  UNK1       -0.3405
     26  C26        3.5230    1.5550    0.1140 C.3     1  UNK1        0.1341
     27  H27        4.1450    1.9170    0.9410 H       1  UNK1        0.0671
     28  O28        3.1400    2.6950   -0.6380 O.3     1  UNK1       -0.3841
     29  H29        2.2950    2.4530   -1.0530 H       1  UNK1        0.2101
     30  C30        4.3720    0.6110   -0.7370 C.3     1  UNK1        0.1141
     31  H31        3.7780    0.2760   -1.6030 H       1  UNK1        0.0648
     32  O32        5.5560    1.2560   -1.1820 O.3     1  UNK1       -0.3864
     33  H33        5.2610    2.0950   -1.5730 H       1  UNK1        0.2100
     34  C34        4.7700   -0.6180    0.0690 C.3     1  UNK1        0.1119
     35  H35        5.3660   -0.2900    0.9380 H       1  UNK1        0.0647
     36  O36        5.5010   -1.5430   -0.7170 O.3     1  UNK1       -0.3865
     37  H37        6.1700   -1.0170   -1.1840 H       1  UNK1        0.2100
     38  C38        3.7170   -2.5000    1.4660 C.3     1  UNK1        0.0730
     39  H39        4.2530   -3.2780    0.9160 H       1  UNK1        0.0584
     40  H40        4.3350   -2.1960    2.3260 H       1  UNK1        0.0584
     41  O41        2.4810   -3.0510    1.8910 O.3     1  UNK1       -0.3924
     42  H42        1.9970   -2.3110    2.2880 H       1  UNK1        0.2095
     43  C43       -4.5720   -0.0170   -0.5210 C.ar    1  UNK1        0.1187
     44  C44       -5.5110    0.4330    0.4300 C.ar    1  UNK1       -0.0219
     45  C45       -5.3510   -2.1780   -0.3520 C.ar    1  UNK1        0.0297
     46  C46       -6.3900   -0.4930    0.9710 C.ar    1  UNK1       -0.0571
     47  H47       -5.5560    1.4750    0.7270 H       1  UNK1        0.0652
     48  H48       -5.2400   -3.2100   -0.6830 H       1  UNK1        0.0830
     49  H49       -7.1270   -0.1690    1.7010 H       1  UNK1        0.0619
     50  C50       -6.3290   -1.8320    0.5720 C.ar    1  UNK1       -0.0435
     51  H51       -7.0060   -2.5790    0.9730 H       1  UNK1        0.0633
     52  N52       -4.4800   -1.3110   -0.8800 N.ar    1  UNK1       -0.2405
     53  C53       -3.2040    2.0720   -0.6430 C.3     1  UNK1        0.0390
     54  H54       -4.0560    2.6380   -0.2500 H       1  UNK1        0.0488
     55  H55       -2.8020    2.6550   -1.4820 H       1  UNK1        0.0488
     56  N56       -3.6880    0.8210   -1.1660 N.pl3   1  UNK1       -0.3265
     57  H57       -3.1350    0.3530   -1.8710 H       1  UNK1        0.1475
@<TRIPOS>BOND
     1    57    56    1
     2     2     1    1
     3    19    16    1
     4    19    20    1
     5    17    16    1
     6    31    30    1
     7    33    32    1
     8    55    53    1
     9    37    36    1
    10    32    30    1
    11    56    53    1
    12    56    43    1
    13    10     9    1
    14    29    28    1
    15    16     1    1
    16    16    18    1
    17    52    43   ar
    18    52    45   ar
    19     1     3    1
    20     1    13    1
    21    30    34    1
    22    30    26    1
    23    36    34    1
    24     4     3    1
    25    48    45    1
    26    53    54    1
    27    53     5    1
    28    28    26    1
    29    43    44   ar
    30    45    50   ar
    31    15    13    1
    32    15    21    1
    33    24    23    1
    34     9    13    1
    35     9     5    1
    36     9    11    1
    37    34    23    1
    38    34    35    1
    39    13    14    1
    40    26    21    1
    41    26    27    1
    42    44    47    1
    43    44    46   ar
    44     5     6    1
    45     5     7    1
    46    23    25    1
    47    23    38    1
    48    50    46   ar
    49    50    51    1
    50     8     7    1
    51    21    25    1
    52    21    22    1
    53    11    12    1
    54    39    38    1
    55    46    49    1
    56    38    41    1
    57    38    40    1
    58    41    42    1
